<?xml version="1.0" encoding="UTF-8"?>
<nodes>
    <node id="A" x="0"   y="0"   type="priority"/>
    <node id="B" x="200" y="0"   type="priority"/>
    <node id="C" x="400" y="0"   type="priority"/>

    <node id="D" x="200" y="200" type="priority"/>
</nodes>
