<routes>
    <vType id="truck" accel="1.0" decel="4.5" maxSpeed="13" length="7"/>
    <vehicle id="LIV2" type="truck" depart="0">
        <route edges="A_B"/>
    </vehicle>
</routes>
