<routes>
    <vType id="truck" accel="1.0" decel="4.5" maxSpeed="13" length="7" color="1,0,0"/>
    <vehicle id="LIV1" type="truck" depart="0">
        <route edges="A_B"/>
    </vehicle>
</routes>
